omega_1
  -OEChem-07021813473D

 12 11  0     0  0  0  0  0  0999 V2000
   -0.0073   -0.6682    0.8730 C   0  0  0  0  0  0  0  0  0  0  0  0
    1.2434   -0.4454    1.7039 C   0  0  0  0  0  0  0  0  0  0  0  0
    1.2748   -1.3434    2.9310 C   0  0  0  0  0  0  0  0  0  0  0  0
    2.4707   -1.0819    3.6608 O   0  0  0  0  0  0  0  0  0  0  0  0
   -0.0645   -1.7028    0.5199 H   0  0  0  0  0  0  0  0  0  0  0  0
   -0.9088   -0.4535    1.4558 H   0  0  0  0  0  0  0  0  0  0  0  0
   -0.0040   -0.0106   -0.0018 H   0  0  0  0  0  0  0  0  0  0  0  0
    1.3018    0.6046    2.0147 H   0  0  0  0  0  0  0  0  0  0  0  0
    2.1346   -0.6278    1.0915 H   0  0  0  0  0  0  0  0  0  0  0  0
    0.4191   -1.1444    3.5840 H   0  0  0  0  0  0  0  0  0  0  0  0
    1.2674   -2.3997    2.6436 H   0  0  0  0  0  0  0  0  0  0  0  0
    2.4445   -1.6802    4.4357 H   0  0  0  0  0  0  0  0  0  0  0  0
  1  2  1  0  0  0  0
  2  3  1  0  0  0  0
  3  4  1  0  0  0  0
  1  5  1  0  0  0  0
  1  6  1  0  0  0  0
  1  7  1  0  0  0  0
  2  8  1  0  0  0  0
  2  9  1  0  0  0  0
  3 10  1  0  0  0  0
  3 11  1  0  0  0  0
  4 12  1  0  0  0  0
M  END
> <MMFF VdW>
   1.7969

> <MMFF Bond>
   0.1421

> <MMFF Bend>
   0.2773

> <MMFF StretchBend>
   0.0063

> <MMFF Torsion>
  -3.9742

> <Sheffield Solvation>
  -4.7012

> <Ligand MMFF Intramol. Energy>
  -1.7516

> <Total_energy>
  -6.4528

$$$$
omega_1
  -OEChem-07021813473D

 12 11  0     0  0  0  0  0  0999 V2000
   -0.0077   -0.6672    0.8703 C   0  0  0  0  0  0  0  0  0  0  0  0
    1.2431   -0.4409    1.7001 C   0  0  0  0  0  0  0  0  0  0  0  0
    1.2792   -1.3423    2.9257 C   0  0  0  0  0  0  0  0  0  0  0  0
    2.4591   -1.0817    3.6822 O   0  0  0  0  0  0  0  0  0  0  0  0
   -0.0610   -1.7013    0.5154 H   0  0  0  0  0  0  0  0  0  0  0  0
   -0.9093   -0.4573    1.4546 H   0  0  0  0  0  0  0  0  0  0  0  0
   -0.0081   -0.0078   -0.0032 H   0  0  0  0  0  0  0  0  0  0  0  0
    1.2977    0.6083    2.0140 H   0  0  0  0  0  0  0  0  0  0  0  0
    2.1334   -0.6179    1.0848 H   0  0  0  0  0  0  0  0  0  0  0  0
    0.4174   -1.1550    3.5738 H   0  0  0  0  0  0  0  0  0  0  0  0
    1.2748   -2.4005    2.6449 H   0  0  0  0  0  0  0  0  0  0  0  0
    3.2129   -1.2815    3.0898 H   0  0  0  0  0  0  0  0  0  0  0  0
  1  2  1  0  0  0  0
  2  3  1  0  0  0  0
  3  4  1  0  0  0  0
  1  5  1  0  0  0  0
  1  6  1  0  0  0  0
  1  7  1  0  0  0  0
  2  8  1  0  0  0  0
  2  9  1  0  0  0  0
  3 10  1  0  0  0  0
  3 11  1  0  0  0  0
  4 12  1  0  0  0  0
M  END
> <MMFF VdW>
   1.9447

> <MMFF Bond>
   0.1515

> <MMFF Bend>
   0.3335

> <MMFF StretchBend>
   0.0218

> <MMFF Torsion>
  -4.0350

> <Sheffield Solvation>
  -4.6805

> <Ligand MMFF Intramol. Energy>
  -1.5834

> <Total_energy>
  -6.2639

$$$$
omega_1
  -OEChem-07021813473D

 12 11  0     0  0  0  0  0  0999 V2000
   -0.0127   -0.6443    0.8666 C   0  0  0  0  0  0  0  0  0  0  0  0
    1.2463   -0.4568    1.7011 C   0  0  0  0  0  0  0  0  0  0  0  0
    1.2697   -1.3614    2.9257 C   0  0  0  0  0  0  0  0  0  0  0  0
    1.3048   -2.7262    2.5186 O   0  0  0  0  0  0  0  0  0  0  0  0
   -0.0857   -1.6654    0.4793 H   0  0  0  0  0  0  0  0  0  0  0  0
   -0.9094   -0.4360    1.4590 H   0  0  0  0  0  0  0  0  0  0  0  0
   -0.0042    0.0398    0.0122 H   0  0  0  0  0  0  0  0  0  0  0  0
    1.3147    0.5889    2.0204 H   0  0  0  0  0  0  0  0  0  0  0  0
    2.1161   -0.6711    1.0693 H   0  0  0  0  0  0  0  0  0  0  0  0
    2.1632   -1.1593    3.5247 H   0  0  0  0  0  0  0  0  0  0  0  0
    0.3837   -1.2026    3.5487 H   0  0  0  0  0  0  0  0  0  0  0  0
    1.3231   -3.2494    3.3462 H   0  0  0  0  0  0  0  0  0  0  0  0
  1  2  1  0  0  0  0
  2  3  1  0  0  0  0
  3  4  1  0  0  0  0
  1  5  1  0  0  0  0
  1  6  1  0  0  0  0
  1  7  1  0  0  0  0
  2  8  1  0  0  0  0
  2  9  1  0  0  0  0
  3 10  1  0  0  0  0
  3 11  1  0  0  0  0
  4 12  1  0  0  0  0
M  END
> <MMFF VdW>
   2.0199

> <MMFF Bond>
   0.1786

> <MMFF Bend>
   0.3901

> <MMFF StretchBend>
   0.0119

> <MMFF Torsion>
  -4.0660

> <Sheffield Solvation>
  -4.6994

> <Ligand MMFF Intramol. Energy>
  -1.4656

> <Total_energy>
  -6.1650

$$$$
omega_1
  -OEChem-07021813473D

 12 11  0     0  0  0  0  0  0999 V2000
   -0.0135   -0.6509    0.8641 C   0  0  0  0  0  0  0  0  0  0  0  0
    1.2436   -0.4494    1.6979 C   0  0  0  0  0  0  0  0  0  0  0  0
    1.2764   -1.3539    2.9235 C   0  0  0  0  0  0  0  0  0  0  0  0
    1.2946   -2.7266    2.5411 O   0  0  0  0  0  0  0  0  0  0  0  0
   -0.0745   -1.6727    0.4765 H   0  0  0  0  0  0  0  0  0  0  0  0
   -0.9122   -0.4534    1.4570 H   0  0  0  0  0  0  0  0  0  0  0  0
   -0.0133    0.0336    0.0100 H   0  0  0  0  0  0  0  0  0  0  0  0
    1.3017    0.5968    2.0175 H   0  0  0  0  0  0  0  0  0  0  0  0
    2.1155   -0.6533    1.0657 H   0  0  0  0  0  0  0  0  0  0  0  0
    2.1693   -1.1544    3.5245 H   0  0  0  0  0  0  0  0  0  0  0  0
    0.3982   -1.1888    3.5555 H   0  0  0  0  0  0  0  0  0  0  0  0
    2.0961   -2.8460    1.9913 H   0  0  0  0  0  0  0  0  0  0  0  0
  1  2  1  0  0  0  0
  2  3  1  0  0  0  0
  3  4  1  0  0  0  0
  1  5  1  0  0  0  0
  1  6  1  0  0  0  0
  1  7  1  0  0  0  0
  2  8  1  0  0  0  0
  2  9  1  0  0  0  0
  3 10  1  0  0  0  0
  3 11  1  0  0  0  0
  4 12  1  0  0  0  0
M  END
> <MMFF VdW>
   2.1202

> <MMFF Bond>
   0.1861

> <MMFF Bend>
   0.4776

> <MMFF StretchBend>
   0.0286

> <MMFF Torsion>
  -4.1590

> <Sheffield Solvation>
  -4.6795

> <Ligand MMFF Intramol. Energy>
  -1.3466

> <Total_energy>
  -6.0262

$$$$
omega_1
  -OEChem-07021813473D

 12 11  0     0  0  0  0  0  0999 V2000
    0.0011   -0.6746    0.8464 C   0  0  0  0  0  0  0  0  0  0  0  0
    1.2300   -0.4319    1.7106 C   0  0  0  0  0  0  0  0  0  0  0  0
    1.2666   -1.3406    2.9330 C   0  0  0  0  0  0  0  0  0  0  0  0
    0.1522   -1.0904    3.7851 O   0  0  0  0  0  0  0  0  0  0  0  0
   -0.0352   -1.7125    0.5002 H   0  0  0  0  0  0  0  0  0  0  0  0
   -0.9209   -0.4630    1.3970 H   0  0  0  0  0  0  0  0  0  0  0  0
    0.0243   -0.0241   -0.0336 H   0  0  0  0  0  0  0  0  0  0  0  0
    1.2276    0.6165    2.0304 H   0  0  0  0  0  0  0  0  0  0  0  0
    2.1320   -0.5946    1.1105 H   0  0  0  0  0  0  0  0  0  0  0  0
    1.2394   -2.3943    2.6384 H   0  0  0  0  0  0  0  0  0  0  0  0
    2.1821   -1.1728    3.5092 H   0  0  0  0  0  0  0  0  0  0  0  0
    0.2120   -0.1475    4.0428 H   0  0  0  0  0  0  0  0  0  0  0  0
  1  2  1  0  0  0  0
  2  3  1  0  0  0  0
  3  4  1  0  0  0  0
  1  5  1  0  0  0  0
  1  6  1  0  0  0  0
  1  7  1  0  0  0  0
  2  8  1  0  0  0  0
  2  9  1  0  0  0  0
  3 10  1  0  0  0  0
  3 11  1  0  0  0  0
  4 12  1  0  0  0  0
M  END
> <MMFF VdW>
   2.1202

> <MMFF Bond>
   0.1861

> <MMFF Bend>
   0.4776

> <MMFF StretchBend>
   0.0286

> <MMFF Torsion>
  -4.1590

> <Sheffield Solvation>
  -4.6795

> <Ligand MMFF Intramol. Energy>
  -1.3466

> <Total_energy>
  -6.0262

$$$$
